38
XYZ file generated by gabedit : coordinates in Angstrom
S          0.0027000000         -1.3114000000          0.0980000000
N         -5.0307000000         -0.4970000000          0.0203000000
N          5.0342000000         -0.4638000000         -0.0017000000
N         -0.0076000000          1.7910000000         -0.0632000000
C         -1.3779000000         -0.2545000000          0.0559000000
C          1.3771000000         -0.2479000000          0.0276000000
C         -1.1839000000          1.1639000000         -0.0115000000
C          1.1725000000          1.1684000000         -0.0506000000
C         -3.7947000000          0.0319000000          0.0396000000
C          3.7927000000          0.0527000000         -0.0191000000
C         -2.6350000000         -0.8049000000          0.0854000000
C          2.6383000000         -0.7905000000          0.0462000000
C         -2.3584000000          2.0022000000         -0.0227000000
C          2.3415000000          2.0114000000         -0.1186000000
C         -3.6047000000          1.4632000000          0.0073000000
C          3.5913000000          1.4803000000         -0.1051000000
C         -5.2487000000         -1.9444000000          0.0542000000
C         -6.2284000000          0.3446000000         -0.0318000000
C          6.2239000000          0.3837000000         -0.1172000000
C          5.2695000000         -1.9030000000          0.1316000000
H         -2.7683000000         -1.8853000000          0.1431000000
H          2.7784000000         -1.8701000000          0.1041000000
H         -2.1992000000          3.0896000000         -0.0553000000
H          2.1751000000          3.0964000000         -0.1795000000
H         -4.4768000000          2.1176000000          0.0088000000
H          4.4578000000          2.1405000000         -0.1520000000
H         -4.8921000000         -2.3781000000          1.0095000000
H         -4.7249000000         -2.4474000000         -0.7827000000
H         -6.3218000000         -2.1941000000         -0.0397000000
H         -6.2353000000          0.9680000000         -0.9482000000
H         -6.2897000000          1.0081000000          0.8536000000
H         -7.1508000000         -0.2654000000         -0.0450000000
H          6.3329000000          1.0375000000          0.7710000000
H          6.1789000000          1.0169000000         -1.0257000000
H          7.1461000000         -0.2219000000         -0.1962000000
H          4.7492000000         -2.3137000000          1.0195000000
H          6.3454000000         -2.1272000000          0.2585000000
H          4.9214000000         -2.4472000000         -0.7685000000
 
